
---------- Begin Simulation Statistics ----------
simSeconds                                   0.000161                       # Number of seconds simulated (Second)
simTicks                                    160880000                       # Number of ticks simulated (Tick)
finalTick                                   160880000                       # Number of ticks from beginning of simulation (restored from checkpoints and never reset) (Tick)
simFreq                                  1000000000000                       # The number of ticks per simulated second ((Tick/Second))
hostSeconds                                      0.35                       # Real time elapsed on the host (Second)
hostTickRate                                458168618                       # The number of ticks simulated per host second (ticks/s) ((Tick/Second))
hostMemory                                     679768                       # Number of bytes of host memory used (Byte)
simInsts                                        62870                       # Number of instructions simulated (Count)
simOps                                         125465                       # Number of ops (including micro ops) simulated (Count)
hostInstRate                                   178825                       # Simulator instruction rate (inst/s) ((Count/Second))
hostOpRate                                     356844                       # Simulator op (including micro ops) rate (op/s) ((Count/Second))
system.clk_domain.clock                          1000                       # Clock period in ticks (Tick)
system.clk_domain.voltage_domain.voltage            1                       # Voltage in Volts (Volt)
system.cpu.numCycles                           160881                       # Number of cpu cycles simulated (Cycle)
system.cpu.numWorkItemsStarted                      0                       # Number of work items this cpu started (Count)
system.cpu.numWorkItemsCompleted                    0                       # Number of work items this cpu completed (Count)
system.cpu.instsAdded                          153524                       # Number of instructions added to the IQ (excludes non-spec) (Count)
system.cpu.nonSpecInstsAdded                       81                       # Number of non-speculative instructions added to the IQ (Count)
system.cpu.instsIssued                         146942                       # Number of instructions issued (Count)
system.cpu.squashedInstsIssued                    117                       # Number of squashed instructions issued (Count)
system.cpu.squashedInstsExamined                28134                       # Number of squashed instructions iterated over during squash; mainly for profiling (Count)
system.cpu.squashedOperandsExamined             38222                       # Number of squashed operands that are examined and possibly removed from graph (Count)
system.cpu.squashedNonSpecRemoved                  78                       # Number of squashed non-spec instructions that were removed (Count)
system.cpu.numIssuedDist::samples               98825                       # Number of insts issued each cycle (Count)
system.cpu.numIssuedDist::mean               1.486891                       # Number of insts issued each cycle (Count)
system.cpu.numIssuedDist::stdev              2.198162                       # Number of insts issued each cycle (Count)
system.cpu.numIssuedDist::underflows                0      0.00%      0.00% # Number of insts issued each cycle (Count)
system.cpu.numIssuedDist::0                     57854     58.54%     58.54% # Number of insts issued each cycle (Count)
system.cpu.numIssuedDist::1                      8173      8.27%     66.81% # Number of insts issued each cycle (Count)
system.cpu.numIssuedDist::2                      7688      7.78%     74.59% # Number of insts issued each cycle (Count)
system.cpu.numIssuedDist::3                      4557      4.61%     79.20% # Number of insts issued each cycle (Count)
system.cpu.numIssuedDist::4                      6462      6.54%     85.74% # Number of insts issued each cycle (Count)
system.cpu.numIssuedDist::5                      5878      5.95%     91.69% # Number of insts issued each cycle (Count)
system.cpu.numIssuedDist::6                      4192      4.24%     95.93% # Number of insts issued each cycle (Count)
system.cpu.numIssuedDist::7                      2836      2.87%     98.80% # Number of insts issued each cycle (Count)
system.cpu.numIssuedDist::8                      1185      1.20%    100.00% # Number of insts issued each cycle (Count)
system.cpu.numIssuedDist::overflows                 0      0.00%    100.00% # Number of insts issued each cycle (Count)
system.cpu.numIssuedDist::min_value                 0                       # Number of insts issued each cycle (Count)
system.cpu.numIssuedDist::max_value                 8                       # Number of insts issued each cycle (Count)
system.cpu.numIssuedDist::total                 98825                       # Number of insts issued each cycle (Count)
system.cpu.statFuBusy::No_OpClass                   0      0.00%      0.00% # attempts to use FU when none available (Count)
system.cpu.statFuBusy::IntAlu                    1207     82.33%     82.33% # attempts to use FU when none available (Count)
system.cpu.statFuBusy::IntMult                      0      0.00%     82.33% # attempts to use FU when none available (Count)
system.cpu.statFuBusy::IntDiv                       0      0.00%     82.33% # attempts to use FU when none available (Count)
system.cpu.statFuBusy::FloatAdd                     0      0.00%     82.33% # attempts to use FU when none available (Count)
system.cpu.statFuBusy::FloatCmp                     0      0.00%     82.33% # attempts to use FU when none available (Count)
system.cpu.statFuBusy::FloatCvt                     0      0.00%     82.33% # attempts to use FU when none available (Count)
system.cpu.statFuBusy::FloatMult                    0      0.00%     82.33% # attempts to use FU when none available (Count)
system.cpu.statFuBusy::FloatMultAcc                 0      0.00%     82.33% # attempts to use FU when none available (Count)
system.cpu.statFuBusy::FloatDiv                     0      0.00%     82.33% # attempts to use FU when none available (Count)
system.cpu.statFuBusy::FloatMisc                    0      0.00%     82.33% # attempts to use FU when none available (Count)
system.cpu.statFuBusy::FloatSqrt                    0      0.00%     82.33% # attempts to use FU when none available (Count)
system.cpu.statFuBusy::SimdAdd                      0      0.00%     82.33% # attempts to use FU when none available (Count)
system.cpu.statFuBusy::SimdAddAcc                   0      0.00%     82.33% # attempts to use FU when none available (Count)
system.cpu.statFuBusy::SimdAlu                     78      5.32%     87.65% # attempts to use FU when none available (Count)
system.cpu.statFuBusy::SimdCmp                      0      0.00%     87.65% # attempts to use FU when none available (Count)
system.cpu.statFuBusy::SimdCvt                      3      0.20%     87.86% # attempts to use FU when none available (Count)
system.cpu.statFuBusy::SimdMisc                     3      0.20%     88.06% # attempts to use FU when none available (Count)
system.cpu.statFuBusy::SimdMult                     0      0.00%     88.06% # attempts to use FU when none available (Count)
system.cpu.statFuBusy::SimdMultAcc                  0      0.00%     88.06% # attempts to use FU when none available (Count)
system.cpu.statFuBusy::SimdShift                    0      0.00%     88.06% # attempts to use FU when none available (Count)
system.cpu.statFuBusy::SimdShiftAcc                 0      0.00%     88.06% # attempts to use FU when none available (Count)
system.cpu.statFuBusy::SimdDiv                      0      0.00%     88.06% # attempts to use FU when none available (Count)
system.cpu.statFuBusy::SimdSqrt                     0      0.00%     88.06% # attempts to use FU when none available (Count)
system.cpu.statFuBusy::SimdFloatAdd                 0      0.00%     88.06% # attempts to use FU when none available (Count)
system.cpu.statFuBusy::SimdFloatAlu                 0      0.00%     88.06% # attempts to use FU when none available (Count)
system.cpu.statFuBusy::SimdFloatCmp                 0      0.00%     88.06% # attempts to use FU when none available (Count)
system.cpu.statFuBusy::SimdFloatCvt                 0      0.00%     88.06% # attempts to use FU when none available (Count)
system.cpu.statFuBusy::SimdFloatDiv                 0      0.00%     88.06% # attempts to use FU when none available (Count)
system.cpu.statFuBusy::SimdFloatMisc                0      0.00%     88.06% # attempts to use FU when none available (Count)
system.cpu.statFuBusy::SimdFloatMult                0      0.00%     88.06% # attempts to use FU when none available (Count)
system.cpu.statFuBusy::SimdFloatMultAcc             0      0.00%     88.06% # attempts to use FU when none available (Count)
system.cpu.statFuBusy::SimdFloatSqrt                0      0.00%     88.06% # attempts to use FU when none available (Count)
system.cpu.statFuBusy::SimdReduceAdd                0      0.00%     88.06% # attempts to use FU when none available (Count)
system.cpu.statFuBusy::SimdReduceAlu                0      0.00%     88.06% # attempts to use FU when none available (Count)
system.cpu.statFuBusy::SimdReduceCmp                0      0.00%     88.06% # attempts to use FU when none available (Count)
system.cpu.statFuBusy::SimdFloatReduceAdd            0      0.00%     88.06% # attempts to use FU when none available (Count)
system.cpu.statFuBusy::SimdFloatReduceCmp            0      0.00%     88.06% # attempts to use FU when none available (Count)
system.cpu.statFuBusy::SimdAes                      0      0.00%     88.06% # attempts to use FU when none available (Count)
system.cpu.statFuBusy::SimdAesMix                   0      0.00%     88.06% # attempts to use FU when none available (Count)
system.cpu.statFuBusy::SimdSha1Hash                 0      0.00%     88.06% # attempts to use FU when none available (Count)
system.cpu.statFuBusy::SimdSha1Hash2                0      0.00%     88.06% # attempts to use FU when none available (Count)
system.cpu.statFuBusy::SimdSha256Hash               0      0.00%     88.06% # attempts to use FU when none available (Count)
system.cpu.statFuBusy::SimdSha256Hash2              0      0.00%     88.06% # attempts to use FU when none available (Count)
system.cpu.statFuBusy::SimdShaSigma2                0      0.00%     88.06% # attempts to use FU when none available (Count)
system.cpu.statFuBusy::SimdShaSigma3                0      0.00%     88.06% # attempts to use FU when none available (Count)
system.cpu.statFuBusy::SimdPredAlu                  0      0.00%     88.06% # attempts to use FU when none available (Count)
system.cpu.statFuBusy::MemRead                     71      4.84%     92.91% # attempts to use FU when none available (Count)
system.cpu.statFuBusy::MemWrite                    61      4.16%     97.07% # attempts to use FU when none available (Count)
system.cpu.statFuBusy::FloatMemRead                12      0.82%     97.89% # attempts to use FU when none available (Count)
system.cpu.statFuBusy::FloatMemWrite               31      2.11%    100.00% # attempts to use FU when none available (Count)
system.cpu.statFuBusy::IprAccess                    0      0.00%    100.00% # attempts to use FU when none available (Count)
system.cpu.statFuBusy::InstPrefetch                 0      0.00%    100.00% # attempts to use FU when none available (Count)
system.cpu.statIssuedInstType_0::No_OpClass         2726      1.86%      1.86% # Number of instructions issued per FU type, per thread (Count)
system.cpu.statIssuedInstType_0::IntAlu        112561     76.60%     78.46% # Number of instructions issued per FU type, per thread (Count)
system.cpu.statIssuedInstType_0::IntMult            8      0.01%     78.46% # Number of instructions issued per FU type, per thread (Count)
system.cpu.statIssuedInstType_0::IntDiv            45      0.03%     78.49% # Number of instructions issued per FU type, per thread (Count)
system.cpu.statIssuedInstType_0::FloatAdd          202      0.14%     78.63% # Number of instructions issued per FU type, per thread (Count)
system.cpu.statIssuedInstType_0::FloatCmp            0      0.00%     78.63% # Number of instructions issued per FU type, per thread (Count)
system.cpu.statIssuedInstType_0::FloatCvt            0      0.00%     78.63% # Number of instructions issued per FU type, per thread (Count)
system.cpu.statIssuedInstType_0::FloatMult            0      0.00%     78.63% # Number of instructions issued per FU type, per thread (Count)
system.cpu.statIssuedInstType_0::FloatMultAcc            0      0.00%     78.63% # Number of instructions issued per FU type, per thread (Count)
system.cpu.statIssuedInstType_0::FloatDiv            0      0.00%     78.63% # Number of instructions issued per FU type, per thread (Count)
system.cpu.statIssuedInstType_0::FloatMisc            0      0.00%     78.63% # Number of instructions issued per FU type, per thread (Count)
system.cpu.statIssuedInstType_0::FloatSqrt            0      0.00%     78.63% # Number of instructions issued per FU type, per thread (Count)
system.cpu.statIssuedInstType_0::SimdAdd           16      0.01%     78.64% # Number of instructions issued per FU type, per thread (Count)
system.cpu.statIssuedInstType_0::SimdAddAcc            0      0.00%     78.64% # Number of instructions issued per FU type, per thread (Count)
system.cpu.statIssuedInstType_0::SimdAlu          798      0.54%     79.18% # Number of instructions issued per FU type, per thread (Count)
system.cpu.statIssuedInstType_0::SimdCmp            0      0.00%     79.18% # Number of instructions issued per FU type, per thread (Count)
system.cpu.statIssuedInstType_0::SimdCvt          234      0.16%     79.34% # Number of instructions issued per FU type, per thread (Count)
system.cpu.statIssuedInstType_0::SimdMisc          438      0.30%     79.64% # Number of instructions issued per FU type, per thread (Count)
system.cpu.statIssuedInstType_0::SimdMult            0      0.00%     79.64% # Number of instructions issued per FU type, per thread (Count)
system.cpu.statIssuedInstType_0::SimdMultAcc            0      0.00%     79.64% # Number of instructions issued per FU type, per thread (Count)
system.cpu.statIssuedInstType_0::SimdShift            0      0.00%     79.64% # Number of instructions issued per FU type, per thread (Count)
system.cpu.statIssuedInstType_0::SimdShiftAcc            0      0.00%     79.64% # Number of instructions issued per FU type, per thread (Count)
system.cpu.statIssuedInstType_0::SimdDiv            0      0.00%     79.64% # Number of instructions issued per FU type, per thread (Count)
system.cpu.statIssuedInstType_0::SimdSqrt            0      0.00%     79.64% # Number of instructions issued per FU type, per thread (Count)
system.cpu.statIssuedInstType_0::SimdFloatAdd            0      0.00%     79.64% # Number of instructions issued per FU type, per thread (Count)
system.cpu.statIssuedInstType_0::SimdFloatAlu            0      0.00%     79.64% # Number of instructions issued per FU type, per thread (Count)
system.cpu.statIssuedInstType_0::SimdFloatCmp            0      0.00%     79.64% # Number of instructions issued per FU type, per thread (Count)
system.cpu.statIssuedInstType_0::SimdFloatCvt            3      0.00%     79.64% # Number of instructions issued per FU type, per thread (Count)
system.cpu.statIssuedInstType_0::SimdFloatDiv            0      0.00%     79.64% # Number of instructions issued per FU type, per thread (Count)
system.cpu.statIssuedInstType_0::SimdFloatMisc            0      0.00%     79.64% # Number of instructions issued per FU type, per thread (Count)
system.cpu.statIssuedInstType_0::SimdFloatMult            0      0.00%     79.64% # Number of instructions issued per FU type, per thread (Count)
system.cpu.statIssuedInstType_0::SimdFloatMultAcc            0      0.00%     79.64% # Number of instructions issued per FU type, per thread (Count)
system.cpu.statIssuedInstType_0::SimdFloatSqrt            0      0.00%     79.64% # Number of instructions issued per FU type, per thread (Count)
system.cpu.statIssuedInstType_0::SimdReduceAdd            0      0.00%     79.64% # Number of instructions issued per FU type, per thread (Count)
system.cpu.statIssuedInstType_0::SimdReduceAlu            0      0.00%     79.64% # Number of instructions issued per FU type, per thread (Count)
system.cpu.statIssuedInstType_0::SimdReduceCmp            0      0.00%     79.64% # Number of instructions issued per FU type, per thread (Count)
system.cpu.statIssuedInstType_0::SimdFloatReduceAdd            0      0.00%     79.64% # Number of instructions issued per FU type, per thread (Count)
system.cpu.statIssuedInstType_0::SimdFloatReduceCmp            0      0.00%     79.64% # Number of instructions issued per FU type, per thread (Count)
system.cpu.statIssuedInstType_0::SimdAes            0      0.00%     79.64% # Number of instructions issued per FU type, per thread (Count)
system.cpu.statIssuedInstType_0::SimdAesMix            0      0.00%     79.64% # Number of instructions issued per FU type, per thread (Count)
system.cpu.statIssuedInstType_0::SimdSha1Hash            0      0.00%     79.64% # Number of instructions issued per FU type, per thread (Count)
system.cpu.statIssuedInstType_0::SimdSha1Hash2            0      0.00%     79.64% # Number of instructions issued per FU type, per thread (Count)
system.cpu.statIssuedInstType_0::SimdSha256Hash            0      0.00%     79.64% # Number of instructions issued per FU type, per thread (Count)
system.cpu.statIssuedInstType_0::SimdSha256Hash2            0      0.00%     79.64% # Number of instructions issued per FU type, per thread (Count)
system.cpu.statIssuedInstType_0::SimdShaSigma2            0      0.00%     79.64% # Number of instructions issued per FU type, per thread (Count)
system.cpu.statIssuedInstType_0::SimdShaSigma3            0      0.00%     79.64% # Number of instructions issued per FU type, per thread (Count)
system.cpu.statIssuedInstType_0::SimdPredAlu            0      0.00%     79.64% # Number of instructions issued per FU type, per thread (Count)
system.cpu.statIssuedInstType_0::MemRead        18219     12.40%     92.04% # Number of instructions issued per FU type, per thread (Count)
system.cpu.statIssuedInstType_0::MemWrite        10560      7.19%     99.23% # Number of instructions issued per FU type, per thread (Count)
system.cpu.statIssuedInstType_0::FloatMemRead          388      0.26%     99.49% # Number of instructions issued per FU type, per thread (Count)
system.cpu.statIssuedInstType_0::FloatMemWrite          744      0.51%    100.00% # Number of instructions issued per FU type, per thread (Count)
system.cpu.statIssuedInstType_0::IprAccess            0      0.00%    100.00% # Number of instructions issued per FU type, per thread (Count)
system.cpu.statIssuedInstType_0::InstPrefetch            0      0.00%    100.00% # Number of instructions issued per FU type, per thread (Count)
system.cpu.statIssuedInstType_0::total         146942                       # Number of instructions issued per FU type, per thread (Count)
system.cpu.issueRate                         0.913358                       # Inst issue rate ((Count/Cycle))
system.cpu.fuBusy                                1466                       # FU busy when requested (Count)
system.cpu.fuBusyRate                        0.009977                       # FU busy rate (busy events/executed inst) ((Count/Count))
system.cpu.intInstQueueReads                   388171                       # Number of integer instruction queue reads (Count)
system.cpu.intInstQueueWrites                  178190                       # Number of integer instruction queue writes (Count)
system.cpu.intInstQueueWakeupAccesses          140790                       # Number of integer instruction queue wakeup accesses (Count)
system.cpu.fpInstQueueReads                      6121                       # Number of floating instruction queue reads (Count)
system.cpu.fpInstQueueWrites                     3591                       # Number of floating instruction queue writes (Count)
system.cpu.fpInstQueueWakeupAccesses             2878                       # Number of floating instruction queue wakeup accesses (Count)
system.cpu.vecInstQueueReads                        0                       # Number of vector instruction queue reads (Count)
system.cpu.vecInstQueueWrites                       0                       # Number of vector instruction queue writes (Count)
system.cpu.vecInstQueueWakeupAccesses               0                       # Number of vector instruction queue wakeup accesses (Count)
system.cpu.intAluAccesses                      142561                       # Number of integer alu accesses (Count)
system.cpu.fpAluAccesses                         3121                       # Number of floating point alu accesses (Count)
system.cpu.vecAluAccesses                           0                       # Number of vector alu accesses (Count)
system.cpu.numInsts                            144943                       # Number of executed instructions (Count)
system.cpu.numLoadInsts                         18273                       # Number of load instructions executed (Count)
system.cpu.numSquashedInsts                      1999                       # Number of squashed instructions skipped in execute (Count)
system.cpu.numSwp                                   0                       # Number of swp insts executed (Count)
system.cpu.numNop                                   0                       # Number of nop insts executed (Count)
system.cpu.numRefs                              29326                       # Number of memory reference insts executed (Count)
system.cpu.numBranches                          15871                       # Number of branches executed (Count)
system.cpu.numStoreInsts                        11053                       # Number of stores executed (Count)
system.cpu.numRate                           0.900933                       # Inst execution rate ((Count/Cycle))
system.cpu.timesIdled                             943                       # Number of times that the entire CPU went into an idle state and unscheduled itself (Count)
system.cpu.idleCycles                           62056                       # Total number of cycles that the CPU has spent unscheduled due to idling (Cycle)
system.cpu.committedInsts                       62870                       # Number of Instructions Simulated (Count)
system.cpu.committedOps                        125465                       # Number of Ops (including micro ops) Simulated (Count)
system.cpu.cpi                               2.558947                       # CPI: Cycles Per Instruction ((Cycle/Count))
system.cpu.totalCpi                          2.558947                       # CPI: Total CPI of All Threads ((Cycle/Count))
system.cpu.ipc                               0.390786                       # IPC: Instructions Per Cycle ((Count/Cycle))
system.cpu.totalIpc                          0.390786                       # IPC: Total IPC of All Threads ((Count/Cycle))
system.cpu.intRegfileReads                     170423                       # Number of integer regfile reads (Count)
system.cpu.intRegfileWrites                    101612                       # Number of integer regfile writes (Count)
system.cpu.fpRegfileReads                        3924                       # Number of floating regfile reads (Count)
system.cpu.fpRegfileWrites                       1961                       # Number of floating regfile writes (Count)
system.cpu.ccRegfileReads                       74260                       # number of cc regfile reads (Count)
system.cpu.ccRegfileWrites                      41511                       # number of cc regfile writes (Count)
system.cpu.miscRegfileReads                     62333                       # number of misc regfile reads (Count)
system.cpu.miscRegfileWrites                        6                       # number of misc regfile writes (Count)
system.cpu.MemDepUnit__0.insertedLoads          19318                       # Number of loads inserted to the mem dependence unit. (Count)
system.cpu.MemDepUnit__0.insertedStores         12036                       # Number of stores inserted to the mem dependence unit. (Count)
system.cpu.MemDepUnit__0.conflictingLoads          121                       # Number of conflicting loads. (Count)
system.cpu.MemDepUnit__0.conflictingStores          102                       # Number of conflicting stores. (Count)
system.cpu.MemDepUnit__1.insertedLoads              0                       # Number of loads inserted to the mem dependence unit. (Count)
system.cpu.MemDepUnit__1.insertedStores             0                       # Number of stores inserted to the mem dependence unit. (Count)
system.cpu.MemDepUnit__1.conflictingLoads            0                       # Number of conflicting loads. (Count)
system.cpu.MemDepUnit__1.conflictingStores            0                       # Number of conflicting stores. (Count)
system.cpu.MemDepUnit__2.insertedLoads              0                       # Number of loads inserted to the mem dependence unit. (Count)
system.cpu.MemDepUnit__2.insertedStores             0                       # Number of stores inserted to the mem dependence unit. (Count)
system.cpu.MemDepUnit__2.conflictingLoads            0                       # Number of conflicting loads. (Count)
system.cpu.MemDepUnit__2.conflictingStores            0                       # Number of conflicting stores. (Count)
system.cpu.MemDepUnit__3.insertedLoads              0                       # Number of loads inserted to the mem dependence unit. (Count)
system.cpu.MemDepUnit__3.insertedStores             0                       # Number of stores inserted to the mem dependence unit. (Count)
system.cpu.MemDepUnit__3.conflictingLoads            0                       # Number of conflicting loads. (Count)
system.cpu.MemDepUnit__3.conflictingStores            0                       # Number of conflicting stores. (Count)
system.cpu.branchPred.lookups                   19497                       # Number of BP lookups (Count)
system.cpu.branchPred.condPredicted             14008                       # Number of conditional branches predicted (Count)
system.cpu.branchPred.condIncorrect              1820                       # Number of conditional branches incorrect (Count)
system.cpu.branchPred.BTBLookups                 8617                       # Number of BTB lookups (Count)
system.cpu.branchPred.BTBHits                    6820                       # Number of BTB hits (Count)
system.cpu.branchPred.BTBHitRatio            0.791459                       # BTB Hit Ratio (Ratio)
system.cpu.branchPred.RASUsed                    1887                       # Number of times the RAS was used to get a target. (Count)
system.cpu.branchPred.RASIncorrect                  9                       # Number of incorrect RAS predictions. (Count)
system.cpu.branchPred.indirectLookups             974                       # Number of indirect predictor lookups. (Count)
system.cpu.branchPred.indirectHits                316                       # Number of indirect target hits. (Count)
system.cpu.branchPred.indirectMisses              658                       # Number of indirect misses. (Count)
system.cpu.branchPred.indirectMispredicted          210                       # Number of mispredicted indirect branches. (Count)
system.cpu.commit.commitSquashedInsts           27840                       # The number of squashed insts skipped by commit (Count)
system.cpu.commit.commitNonSpecStalls               3                       # The number of times commit has been forced to stall to communicate backwards (Count)
system.cpu.commit.branchMispredicts              1276                       # The number of times a branch was mispredicted (Count)
system.cpu.commit.numCommittedDist::samples        94458                       # Number of insts commited each cycle (Count)
system.cpu.commit.numCommittedDist::mean     1.328262                       # Number of insts commited each cycle (Count)
system.cpu.commit.numCommittedDist::stdev     2.274443                       # Number of insts commited each cycle (Count)
system.cpu.commit.numCommittedDist::underflows            0      0.00%      0.00% # Number of insts commited each cycle (Count)
system.cpu.commit.numCommittedDist::0           60009     63.53%     63.53% # Number of insts commited each cycle (Count)
system.cpu.commit.numCommittedDist::1            7150      7.57%     71.10% # Number of insts commited each cycle (Count)
system.cpu.commit.numCommittedDist::2            4438      4.70%     75.80% # Number of insts commited each cycle (Count)
system.cpu.commit.numCommittedDist::3           11730     12.42%     88.22% # Number of insts commited each cycle (Count)
system.cpu.commit.numCommittedDist::4            2042      2.16%     90.38% # Number of insts commited each cycle (Count)
system.cpu.commit.numCommittedDist::5            1362      1.44%     91.82% # Number of insts commited each cycle (Count)
system.cpu.commit.numCommittedDist::6             869      0.92%     92.74% # Number of insts commited each cycle (Count)
system.cpu.commit.numCommittedDist::7             807      0.85%     93.59% # Number of insts commited each cycle (Count)
system.cpu.commit.numCommittedDist::8            6051      6.41%    100.00% # Number of insts commited each cycle (Count)
system.cpu.commit.numCommittedDist::overflows            0      0.00%    100.00% # Number of insts commited each cycle (Count)
system.cpu.commit.numCommittedDist::min_value            0                       # Number of insts commited each cycle (Count)
system.cpu.commit.numCommittedDist::max_value            8                       # Number of insts commited each cycle (Count)
system.cpu.commit.numCommittedDist::total        94458                       # Number of insts commited each cycle (Count)
system.cpu.commit.instsCommitted                62870                       # Number of instructions committed (Count)
system.cpu.commit.opsCommitted                 125465                       # Number of ops (including micro ops) committed (Count)
system.cpu.commit.memRefs                       25505                       # Number of memory references committed (Count)
system.cpu.commit.loads                         15628                       # Number of loads committed (Count)
system.cpu.commit.amos                              0                       # Number of atomic instructions committed (Count)
system.cpu.commit.membars                           0                       # Number of memory barriers committed (Count)
system.cpu.commit.branches                      14277                       # Number of branches committed (Count)
system.cpu.commit.vectorInstructions                0                       # Number of committed Vector instructions. (Count)
system.cpu.commit.floating                       2631                       # Number of committed floating point instructions. (Count)
system.cpu.commit.integer                      122002                       # Number of committed integer instructions. (Count)
system.cpu.commit.functionCalls                  1497                       # Number of function calls committed. (Count)
system.cpu.commit.committedInstType_0::No_OpClass         1835      1.46%      1.46% # Class of committed instruction (Count)
system.cpu.commit.committedInstType_0::IntAlu        96533     76.94%     78.40% # Class of committed instruction (Count)
system.cpu.commit.committedInstType_0::IntMult            6      0.00%     78.41% # Class of committed instruction (Count)
system.cpu.commit.committedInstType_0::IntDiv           42      0.03%     78.44% # Class of committed instruction (Count)
system.cpu.commit.committedInstType_0::FloatAdd          173      0.14%     78.58% # Class of committed instruction (Count)
system.cpu.commit.committedInstType_0::FloatCmp            0      0.00%     78.58% # Class of committed instruction (Count)
system.cpu.commit.committedInstType_0::FloatCvt            0      0.00%     78.58% # Class of committed instruction (Count)
system.cpu.commit.committedInstType_0::FloatMult            0      0.00%     78.58% # Class of committed instruction (Count)
system.cpu.commit.committedInstType_0::FloatMultAcc            0      0.00%     78.58% # Class of committed instruction (Count)
system.cpu.commit.committedInstType_0::FloatDiv            0      0.00%     78.58% # Class of committed instruction (Count)
system.cpu.commit.committedInstType_0::FloatMisc            0      0.00%     78.58% # Class of committed instruction (Count)
system.cpu.commit.committedInstType_0::FloatSqrt            0      0.00%     78.58% # Class of committed instruction (Count)
system.cpu.commit.committedInstType_0::SimdAdd           16      0.01%     78.59% # Class of committed instruction (Count)
system.cpu.commit.committedInstType_0::SimdAddAcc            0      0.00%     78.59% # Class of committed instruction (Count)
system.cpu.commit.committedInstType_0::SimdAlu          704      0.56%     79.15% # Class of committed instruction (Count)
system.cpu.commit.committedInstType_0::SimdCmp            0      0.00%     79.15% # Class of committed instruction (Count)
system.cpu.commit.committedInstType_0::SimdCvt          232      0.18%     79.34% # Class of committed instruction (Count)
system.cpu.commit.committedInstType_0::SimdMisc          416      0.33%     79.67% # Class of committed instruction (Count)
system.cpu.commit.committedInstType_0::SimdMult            0      0.00%     79.67% # Class of committed instruction (Count)
system.cpu.commit.committedInstType_0::SimdMultAcc            0      0.00%     79.67% # Class of committed instruction (Count)
system.cpu.commit.committedInstType_0::SimdShift            0      0.00%     79.67% # Class of committed instruction (Count)
system.cpu.commit.committedInstType_0::SimdShiftAcc            0      0.00%     79.67% # Class of committed instruction (Count)
system.cpu.commit.committedInstType_0::SimdDiv            0      0.00%     79.67% # Class of committed instruction (Count)
system.cpu.commit.committedInstType_0::SimdSqrt            0      0.00%     79.67% # Class of committed instruction (Count)
system.cpu.commit.committedInstType_0::SimdFloatAdd            0      0.00%     79.67% # Class of committed instruction (Count)
system.cpu.commit.committedInstType_0::SimdFloatAlu            0      0.00%     79.67% # Class of committed instruction (Count)
system.cpu.commit.committedInstType_0::SimdFloatCmp            0      0.00%     79.67% # Class of committed instruction (Count)
system.cpu.commit.committedInstType_0::SimdFloatCvt            3      0.00%     79.67% # Class of committed instruction (Count)
system.cpu.commit.committedInstType_0::SimdFloatDiv            0      0.00%     79.67% # Class of committed instruction (Count)
system.cpu.commit.committedInstType_0::SimdFloatMisc            0      0.00%     79.67% # Class of committed instruction (Count)
system.cpu.commit.committedInstType_0::SimdFloatMult            0      0.00%     79.67% # Class of committed instruction (Count)
system.cpu.commit.committedInstType_0::SimdFloatMultAcc            0      0.00%     79.67% # Class of committed instruction (Count)
system.cpu.commit.committedInstType_0::SimdFloatSqrt            0      0.00%     79.67% # Class of committed instruction (Count)
system.cpu.commit.committedInstType_0::SimdReduceAdd            0      0.00%     79.67% # Class of committed instruction (Count)
system.cpu.commit.committedInstType_0::SimdReduceAlu            0      0.00%     79.67% # Class of committed instruction (Count)
system.cpu.commit.committedInstType_0::SimdReduceCmp            0      0.00%     79.67% # Class of committed instruction (Count)
system.cpu.commit.committedInstType_0::SimdFloatReduceAdd            0      0.00%     79.67% # Class of committed instruction (Count)
system.cpu.commit.committedInstType_0::SimdFloatReduceCmp            0      0.00%     79.67% # Class of committed instruction (Count)
system.cpu.commit.committedInstType_0::SimdAes            0      0.00%     79.67% # Class of committed instruction (Count)
system.cpu.commit.committedInstType_0::SimdAesMix            0      0.00%     79.67% # Class of committed instruction (Count)
system.cpu.commit.committedInstType_0::SimdSha1Hash            0      0.00%     79.67% # Class of committed instruction (Count)
system.cpu.commit.committedInstType_0::SimdSha1Hash2            0      0.00%     79.67% # Class of committed instruction (Count)
system.cpu.commit.committedInstType_0::SimdSha256Hash            0      0.00%     79.67% # Class of committed instruction (Count)
system.cpu.commit.committedInstType_0::SimdSha256Hash2            0      0.00%     79.67% # Class of committed instruction (Count)
system.cpu.commit.committedInstType_0::SimdShaSigma2            0      0.00%     79.67% # Class of committed instruction (Count)
system.cpu.commit.committedInstType_0::SimdShaSigma3            0      0.00%     79.67% # Class of committed instruction (Count)
system.cpu.commit.committedInstType_0::SimdPredAlu            0      0.00%     79.67% # Class of committed instruction (Count)
system.cpu.commit.committedInstType_0::MemRead        15325     12.21%     91.89% # Class of committed instruction (Count)
system.cpu.commit.committedInstType_0::MemWrite         9259      7.38%     99.27% # Class of committed instruction (Count)
system.cpu.commit.committedInstType_0::FloatMemRead          303      0.24%     99.51% # Class of committed instruction (Count)
system.cpu.commit.committedInstType_0::FloatMemWrite          618      0.49%    100.00% # Class of committed instruction (Count)
system.cpu.commit.committedInstType_0::IprAccess            0      0.00%    100.00% # Class of committed instruction (Count)
system.cpu.commit.committedInstType_0::InstPrefetch            0      0.00%    100.00% # Class of committed instruction (Count)
system.cpu.commit.committedInstType_0::total       125465                       # Class of committed instruction (Count)
system.cpu.commit.commitEligibleSamples          6051                       # number cycles where commit BW limit reached (Cycle)
system.cpu.dcache.demandHits::cpu.data          24048                       # number of demand (read+write) hits (Count)
system.cpu.dcache.demandHits::total             24048                       # number of demand (read+write) hits (Count)
system.cpu.dcache.overallHits::cpu.data         24048                       # number of overall hits (Count)
system.cpu.dcache.overallHits::total            24048                       # number of overall hits (Count)
system.cpu.dcache.demandMisses::cpu.data          721                       # number of demand (read+write) misses (Count)
system.cpu.dcache.demandMisses::total             721                       # number of demand (read+write) misses (Count)
system.cpu.dcache.overallMisses::cpu.data          721                       # number of overall misses (Count)
system.cpu.dcache.overallMisses::total            721                       # number of overall misses (Count)
system.cpu.dcache.demandMissLatency::cpu.data     75284999                       # number of demand (read+write) miss ticks (Tick)
system.cpu.dcache.demandMissLatency::total     75284999                       # number of demand (read+write) miss ticks (Tick)
system.cpu.dcache.overallMissLatency::cpu.data     75284999                       # number of overall miss ticks (Tick)
system.cpu.dcache.overallMissLatency::total     75284999                       # number of overall miss ticks (Tick)
system.cpu.dcache.demandAccesses::cpu.data        24769                       # number of demand (read+write) accesses (Count)
system.cpu.dcache.demandAccesses::total         24769                       # number of demand (read+write) accesses (Count)
system.cpu.dcache.overallAccesses::cpu.data        24769                       # number of overall (read+write) accesses (Count)
system.cpu.dcache.overallAccesses::total        24769                       # number of overall (read+write) accesses (Count)
system.cpu.dcache.demandMissRate::cpu.data     0.029109                       # miss rate for demand accesses (Ratio)
system.cpu.dcache.demandMissRate::total      0.029109                       # miss rate for demand accesses (Ratio)
system.cpu.dcache.overallMissRate::cpu.data     0.029109                       # miss rate for overall accesses (Ratio)
system.cpu.dcache.overallMissRate::total     0.029109                       # miss rate for overall accesses (Ratio)
system.cpu.dcache.demandAvgMissLatency::cpu.data 104417.474341                       # average overall miss latency in ticks ((Tick/Count))
system.cpu.dcache.demandAvgMissLatency::total 104417.474341                       # average overall miss latency in ticks ((Tick/Count))
system.cpu.dcache.overallAvgMissLatency::cpu.data 104417.474341                       # average overall miss latency ((Tick/Count))
system.cpu.dcache.overallAvgMissLatency::total 104417.474341                       # average overall miss latency ((Tick/Count))
system.cpu.dcache.blockedCycles::no_mshrs          532                       # number of cycles access was blocked (Cycle)
system.cpu.dcache.blockedCycles::no_targets            0                       # number of cycles access was blocked (Cycle)
system.cpu.dcache.blockedCauses::no_mshrs           17                       # number of times access was blocked (Count)
system.cpu.dcache.blockedCauses::no_targets            0                       # number of times access was blocked (Count)
system.cpu.dcache.avgBlocked::no_mshrs      31.294118                       # average number of cycles each access was blocked ((Cycle/Count))
system.cpu.dcache.avgBlocked::no_targets          nan                       # average number of cycles each access was blocked ((Cycle/Count))
system.cpu.dcache.writebacks::writebacks            9                       # number of writebacks (Count)
system.cpu.dcache.writebacks::total                 9                       # number of writebacks (Count)
system.cpu.dcache.demandMshrHits::cpu.data          198                       # number of demand (read+write) MSHR hits (Count)
system.cpu.dcache.demandMshrHits::total           198                       # number of demand (read+write) MSHR hits (Count)
system.cpu.dcache.overallMshrHits::cpu.data          198                       # number of overall MSHR hits (Count)
system.cpu.dcache.overallMshrHits::total          198                       # number of overall MSHR hits (Count)
system.cpu.dcache.demandMshrMisses::cpu.data          523                       # number of demand (read+write) MSHR misses (Count)
system.cpu.dcache.demandMshrMisses::total          523                       # number of demand (read+write) MSHR misses (Count)
system.cpu.dcache.overallMshrMisses::cpu.data          523                       # number of overall MSHR misses (Count)
system.cpu.dcache.overallMshrMisses::total          523                       # number of overall MSHR misses (Count)
system.cpu.dcache.demandMshrMissLatency::cpu.data     54267999                       # number of demand (read+write) MSHR miss ticks (Tick)
system.cpu.dcache.demandMshrMissLatency::total     54267999                       # number of demand (read+write) MSHR miss ticks (Tick)
system.cpu.dcache.overallMshrMissLatency::cpu.data     54267999                       # number of overall MSHR miss ticks (Tick)
system.cpu.dcache.overallMshrMissLatency::total     54267999                       # number of overall MSHR miss ticks (Tick)
system.cpu.dcache.demandMshrMissRate::cpu.data     0.021115                       # mshr miss ratio for demand accesses (Ratio)
system.cpu.dcache.demandMshrMissRate::total     0.021115                       # mshr miss ratio for demand accesses (Ratio)
system.cpu.dcache.overallMshrMissRate::cpu.data     0.021115                       # mshr miss ratio for overall accesses (Ratio)
system.cpu.dcache.overallMshrMissRate::total     0.021115                       # mshr miss ratio for overall accesses (Ratio)
system.cpu.dcache.demandAvgMshrMissLatency::cpu.data 103762.904398                       # average overall mshr miss latency ((Tick/Count))
system.cpu.dcache.demandAvgMshrMissLatency::total 103762.904398                       # average overall mshr miss latency ((Tick/Count))
system.cpu.dcache.overallAvgMshrMissLatency::cpu.data 103762.904398                       # average overall mshr miss latency ((Tick/Count))
system.cpu.dcache.overallAvgMshrMissLatency::total 103762.904398                       # average overall mshr miss latency ((Tick/Count))
system.cpu.dcache.replacements                     16                       # number of replacements (Count)
system.cpu.dcache.ReadReq.hits::cpu.data        14468                       # number of ReadReq hits (Count)
system.cpu.dcache.ReadReq.hits::total           14468                       # number of ReadReq hits (Count)
system.cpu.dcache.ReadReq.misses::cpu.data          422                       # number of ReadReq misses (Count)
system.cpu.dcache.ReadReq.misses::total           422                       # number of ReadReq misses (Count)
system.cpu.dcache.ReadReq.missLatency::cpu.data     44900000                       # number of ReadReq miss ticks (Tick)
system.cpu.dcache.ReadReq.missLatency::total     44900000                       # number of ReadReq miss ticks (Tick)
system.cpu.dcache.ReadReq.accesses::cpu.data        14890                       # number of ReadReq accesses(hits+misses) (Count)
system.cpu.dcache.ReadReq.accesses::total        14890                       # number of ReadReq accesses(hits+misses) (Count)
system.cpu.dcache.ReadReq.missRate::cpu.data     0.028341                       # miss rate for ReadReq accesses (Ratio)
system.cpu.dcache.ReadReq.missRate::total     0.028341                       # miss rate for ReadReq accesses (Ratio)
system.cpu.dcache.ReadReq.avgMissLatency::cpu.data 106398.104265                       # average ReadReq miss latency ((Tick/Count))
system.cpu.dcache.ReadReq.avgMissLatency::total 106398.104265                       # average ReadReq miss latency ((Tick/Count))
system.cpu.dcache.ReadReq.mshrHits::cpu.data          196                       # number of ReadReq MSHR hits (Count)
system.cpu.dcache.ReadReq.mshrHits::total          196                       # number of ReadReq MSHR hits (Count)
system.cpu.dcache.ReadReq.mshrMisses::cpu.data          226                       # number of ReadReq MSHR misses (Count)
system.cpu.dcache.ReadReq.mshrMisses::total          226                       # number of ReadReq MSHR misses (Count)
system.cpu.dcache.ReadReq.mshrMissLatency::cpu.data     24656000                       # number of ReadReq MSHR miss ticks (Tick)
system.cpu.dcache.ReadReq.mshrMissLatency::total     24656000                       # number of ReadReq MSHR miss ticks (Tick)
system.cpu.dcache.ReadReq.mshrMissRate::cpu.data     0.015178                       # mshr miss rate for ReadReq accesses (Ratio)
system.cpu.dcache.ReadReq.mshrMissRate::total     0.015178                       # mshr miss rate for ReadReq accesses (Ratio)
system.cpu.dcache.ReadReq.avgMshrMissLatency::cpu.data 109097.345133                       # average ReadReq mshr miss latency ((Tick/Count))
system.cpu.dcache.ReadReq.avgMshrMissLatency::total 109097.345133                       # average ReadReq mshr miss latency ((Tick/Count))
system.cpu.dcache.WriteReq.hits::cpu.data         9580                       # number of WriteReq hits (Count)
system.cpu.dcache.WriteReq.hits::total           9580                       # number of WriteReq hits (Count)
system.cpu.dcache.WriteReq.misses::cpu.data          299                       # number of WriteReq misses (Count)
system.cpu.dcache.WriteReq.misses::total          299                       # number of WriteReq misses (Count)
system.cpu.dcache.WriteReq.missLatency::cpu.data     30384999                       # number of WriteReq miss ticks (Tick)
system.cpu.dcache.WriteReq.missLatency::total     30384999                       # number of WriteReq miss ticks (Tick)
system.cpu.dcache.WriteReq.accesses::cpu.data         9879                       # number of WriteReq accesses(hits+misses) (Count)
system.cpu.dcache.WriteReq.accesses::total         9879                       # number of WriteReq accesses(hits+misses) (Count)
system.cpu.dcache.WriteReq.missRate::cpu.data     0.030266                       # miss rate for WriteReq accesses (Ratio)
system.cpu.dcache.WriteReq.missRate::total     0.030266                       # miss rate for WriteReq accesses (Ratio)
system.cpu.dcache.WriteReq.avgMissLatency::cpu.data 101622.070234                       # average WriteReq miss latency ((Tick/Count))
system.cpu.dcache.WriteReq.avgMissLatency::total 101622.070234                       # average WriteReq miss latency ((Tick/Count))
system.cpu.dcache.WriteReq.mshrHits::cpu.data            2                       # number of WriteReq MSHR hits (Count)
system.cpu.dcache.WriteReq.mshrHits::total            2                       # number of WriteReq MSHR hits (Count)
system.cpu.dcache.WriteReq.mshrMisses::cpu.data          297                       # number of WriteReq MSHR misses (Count)
system.cpu.dcache.WriteReq.mshrMisses::total          297                       # number of WriteReq MSHR misses (Count)
system.cpu.dcache.WriteReq.mshrMissLatency::cpu.data     29611999                       # number of WriteReq MSHR miss ticks (Tick)
system.cpu.dcache.WriteReq.mshrMissLatency::total     29611999                       # number of WriteReq MSHR miss ticks (Tick)
system.cpu.dcache.WriteReq.mshrMissRate::cpu.data     0.030064                       # mshr miss rate for WriteReq accesses (Ratio)
system.cpu.dcache.WriteReq.mshrMissRate::total     0.030064                       # mshr miss rate for WriteReq accesses (Ratio)
system.cpu.dcache.WriteReq.avgMshrMissLatency::cpu.data 99703.700337                       # average WriteReq mshr miss latency ((Tick/Count))
system.cpu.dcache.WriteReq.avgMshrMissLatency::total 99703.700337                       # average WriteReq mshr miss latency ((Tick/Count))
system.cpu.dcache.power_state.pwrStateResidencyTicks::UNDEFINED    160880000                       # Cumulative time (in ticks) in various power states (Tick)
system.cpu.dcache.tags.tagsInUse           311.636239                       # Average ticks per tags in use ((Tick/Count))
system.cpu.dcache.tags.totalRefs                24571                       # Total number of references to valid blocks. (Count)
system.cpu.dcache.tags.sampledRefs                521                       # Sample count of references to valid blocks. (Count)
system.cpu.dcache.tags.avgRefs              47.161228                       # Average number of references to valid blocks. ((Count/Count))
system.cpu.dcache.tags.warmupTick              222000                       # The tick when the warmup percentage was hit. (Tick)
system.cpu.dcache.tags.occupancies::cpu.data   311.636239                       # Average occupied blocks per tick, per requestor ((Count/Tick))
system.cpu.dcache.tags.avgOccs::cpu.data     0.304332                       # Average percentage of cache occupancy ((Ratio/Tick))
system.cpu.dcache.tags.avgOccs::total        0.304332                       # Average percentage of cache occupancy ((Ratio/Tick))
system.cpu.dcache.tags.occupanciesTaskId::1024          505                       # Occupied blocks per task id (Count)
system.cpu.dcache.tags.ageTaskId_1024::0           18                       # Occupied blocks per task id, per block age (Count)
system.cpu.dcache.tags.ageTaskId_1024::1          217                       # Occupied blocks per task id, per block age (Count)
system.cpu.dcache.tags.ageTaskId_1024::2          270                       # Occupied blocks per task id, per block age (Count)
system.cpu.dcache.tags.ratioOccsTaskId::1024     0.493164                       # Ratio of occupied blocks and all blocks, per task id (Ratio)
system.cpu.dcache.tags.tagAccesses              50059                       # Number of tag accesses (Count)
system.cpu.dcache.tags.dataAccesses             50059                       # Number of data accesses (Count)
system.cpu.dcache.tags.power_state.pwrStateResidencyTicks::UNDEFINED    160880000                       # Cumulative time (in ticks) in various power states (Tick)
system.cpu.decode.idleCycles                    54203                       # Number of cycles decode is idle (Cycle)
system.cpu.decode.blockedCycles                 17847                       # Number of cycles decode is blocked (Cycle)
system.cpu.decode.runCycles                     24148                       # Number of cycles decode is running (Cycle)
system.cpu.decode.unblockCycles                  1292                       # Number of cycles decode is unblocking (Cycle)
system.cpu.decode.squashCycles                   1335                       # Number of cycles decode is squashing (Cycle)
system.cpu.decode.branchResolved                 7297                       # Number of times decode resolved a branch (Count)
system.cpu.decode.branchMispred                   689                       # Number of times decode detected a branch misprediction (Count)
system.cpu.decode.decodedInsts                 162527                       # Number of instructions handled by decode (Count)
system.cpu.decode.squashedInsts                  3343                       # Number of squashed instructions handled by decode (Count)
system.cpu.fetch.icacheStallCycles              54960                       # Number of cycles fetch is stalled on an Icache miss (Cycle)
system.cpu.fetch.insts                          87847                       # Number of instructions fetch has processed (Count)
system.cpu.fetch.branches                       19497                       # Number of branches that fetch encountered (Count)
system.cpu.fetch.predictedBranches               9023                       # Number of branches that fetch has predicted taken (Count)
system.cpu.fetch.cycles                         40765                       # Number of cycles fetch has run and was not squashing or blocked (Cycle)
system.cpu.fetch.squashCycles                    4020                       # Number of cycles fetch has spent squashing (Cycle)
system.cpu.fetch.miscStallCycles                  155                       # Number of cycles fetch has spent waiting on interrupts, or bad addresses, or out of MSHRs (Cycle)
system.cpu.fetch.pendingTrapStallCycles           915                       # Number of stall cycles due to pending traps (Cycle)
system.cpu.fetch.icacheWaitRetryStallCycles           20                       # Number of stall cycles due to full MSHR (Cycle)
system.cpu.fetch.cacheLines                     14669                       # Number of cache lines fetched (Count)
system.cpu.fetch.icacheSquashes                   948                       # Number of outstanding Icache misses that were squashed (Count)
system.cpu.fetch.nisnDist::samples              98825                       # Number of instructions fetched each cycle (Total) (Count)
system.cpu.fetch.nisnDist::mean              1.752006                       # Number of instructions fetched each cycle (Total) (Count)
system.cpu.fetch.nisnDist::stdev             3.070534                       # Number of instructions fetched each cycle (Total) (Count)
system.cpu.fetch.nisnDist::underflows               0      0.00%      0.00% # Number of instructions fetched each cycle (Total) (Count)
system.cpu.fetch.nisnDist::0                    71697     72.55%     72.55% # Number of instructions fetched each cycle (Total) (Count)
system.cpu.fetch.nisnDist::1                     1246      1.26%     73.81% # Number of instructions fetched each cycle (Total) (Count)
system.cpu.fetch.nisnDist::2                      880      0.89%     74.70% # Number of instructions fetched each cycle (Total) (Count)
system.cpu.fetch.nisnDist::3                     1819      1.84%     76.54% # Number of instructions fetched each cycle (Total) (Count)
system.cpu.fetch.nisnDist::4                     1554      1.57%     78.11% # Number of instructions fetched each cycle (Total) (Count)
system.cpu.fetch.nisnDist::5                     3415      3.46%     81.57% # Number of instructions fetched each cycle (Total) (Count)
system.cpu.fetch.nisnDist::6                     1432      1.45%     83.02% # Number of instructions fetched each cycle (Total) (Count)
system.cpu.fetch.nisnDist::7                     1460      1.48%     84.50% # Number of instructions fetched each cycle (Total) (Count)
system.cpu.fetch.nisnDist::8                    15322     15.50%    100.00% # Number of instructions fetched each cycle (Total) (Count)
system.cpu.fetch.nisnDist::overflows                0      0.00%    100.00% # Number of instructions fetched each cycle (Total) (Count)
system.cpu.fetch.nisnDist::min_value                0                       # Number of instructions fetched each cycle (Total) (Count)
system.cpu.fetch.nisnDist::max_value                8                       # Number of instructions fetched each cycle (Total) (Count)
system.cpu.fetch.nisnDist::total                98825                       # Number of instructions fetched each cycle (Total) (Count)
system.cpu.fetch.branchRate                  0.121189                       # Number of branch fetches per cycle (Ratio)
system.cpu.fetch.rate                        0.546037                       # Number of inst fetches per cycle ((Count/Cycle))
system.cpu.icache.demandHits::cpu.inst          12747                       # number of demand (read+write) hits (Count)
system.cpu.icache.demandHits::total             12747                       # number of demand (read+write) hits (Count)
system.cpu.icache.overallHits::cpu.inst         12747                       # number of overall hits (Count)
system.cpu.icache.overallHits::total            12747                       # number of overall hits (Count)
system.cpu.icache.demandMisses::cpu.inst         1922                       # number of demand (read+write) misses (Count)
system.cpu.icache.demandMisses::total            1922                       # number of demand (read+write) misses (Count)
system.cpu.icache.overallMisses::cpu.inst         1922                       # number of overall misses (Count)
system.cpu.icache.overallMisses::total           1922                       # number of overall misses (Count)
system.cpu.icache.demandMissLatency::cpu.inst    168078000                       # number of demand (read+write) miss ticks (Tick)
system.cpu.icache.demandMissLatency::total    168078000                       # number of demand (read+write) miss ticks (Tick)
system.cpu.icache.overallMissLatency::cpu.inst    168078000                       # number of overall miss ticks (Tick)
system.cpu.icache.overallMissLatency::total    168078000                       # number of overall miss ticks (Tick)
system.cpu.icache.demandAccesses::cpu.inst        14669                       # number of demand (read+write) accesses (Count)
system.cpu.icache.demandAccesses::total         14669                       # number of demand (read+write) accesses (Count)
system.cpu.icache.overallAccesses::cpu.inst        14669                       # number of overall (read+write) accesses (Count)
system.cpu.icache.overallAccesses::total        14669                       # number of overall (read+write) accesses (Count)
system.cpu.icache.demandMissRate::cpu.inst     0.131025                       # miss rate for demand accesses (Ratio)
system.cpu.icache.demandMissRate::total      0.131025                       # miss rate for demand accesses (Ratio)
system.cpu.icache.overallMissRate::cpu.inst     0.131025                       # miss rate for overall accesses (Ratio)
system.cpu.icache.overallMissRate::total     0.131025                       # miss rate for overall accesses (Ratio)
system.cpu.icache.demandAvgMissLatency::cpu.inst 87449.531738                       # average overall miss latency in ticks ((Tick/Count))
system.cpu.icache.demandAvgMissLatency::total 87449.531738                       # average overall miss latency in ticks ((Tick/Count))
system.cpu.icache.overallAvgMissLatency::cpu.inst 87449.531738                       # average overall miss latency ((Tick/Count))
system.cpu.icache.overallAvgMissLatency::total 87449.531738                       # average overall miss latency ((Tick/Count))
system.cpu.icache.blockedCycles::no_mshrs           94                       # number of cycles access was blocked (Cycle)
system.cpu.icache.blockedCycles::no_targets            0                       # number of cycles access was blocked (Cycle)
system.cpu.icache.blockedCauses::no_mshrs            5                       # number of times access was blocked (Count)
system.cpu.icache.blockedCauses::no_targets            0                       # number of times access was blocked (Count)
system.cpu.icache.avgBlocked::no_mshrs      18.800000                       # average number of cycles each access was blocked ((Cycle/Count))
system.cpu.icache.avgBlocked::no_targets          nan                       # average number of cycles each access was blocked ((Cycle/Count))
system.cpu.icache.demandMshrHits::cpu.inst          322                       # number of demand (read+write) MSHR hits (Count)
system.cpu.icache.demandMshrHits::total           322                       # number of demand (read+write) MSHR hits (Count)
system.cpu.icache.overallMshrHits::cpu.inst          322                       # number of overall MSHR hits (Count)
system.cpu.icache.overallMshrHits::total          322                       # number of overall MSHR hits (Count)
system.cpu.icache.demandMshrMisses::cpu.inst         1600                       # number of demand (read+write) MSHR misses (Count)
system.cpu.icache.demandMshrMisses::total         1600                       # number of demand (read+write) MSHR misses (Count)
system.cpu.icache.overallMshrMisses::cpu.inst         1600                       # number of overall MSHR misses (Count)
system.cpu.icache.overallMshrMisses::total         1600                       # number of overall MSHR misses (Count)
system.cpu.icache.demandMshrMissLatency::cpu.inst    141913000                       # number of demand (read+write) MSHR miss ticks (Tick)
system.cpu.icache.demandMshrMissLatency::total    141913000                       # number of demand (read+write) MSHR miss ticks (Tick)
system.cpu.icache.overallMshrMissLatency::cpu.inst    141913000                       # number of overall MSHR miss ticks (Tick)
system.cpu.icache.overallMshrMissLatency::total    141913000                       # number of overall MSHR miss ticks (Tick)
system.cpu.icache.demandMshrMissRate::cpu.inst     0.109074                       # mshr miss ratio for demand accesses (Ratio)
system.cpu.icache.demandMshrMissRate::total     0.109074                       # mshr miss ratio for demand accesses (Ratio)
system.cpu.icache.overallMshrMissRate::cpu.inst     0.109074                       # mshr miss ratio for overall accesses (Ratio)
system.cpu.icache.overallMshrMissRate::total     0.109074                       # mshr miss ratio for overall accesses (Ratio)
system.cpu.icache.demandAvgMshrMissLatency::cpu.inst 88695.625000                       # average overall mshr miss latency ((Tick/Count))
system.cpu.icache.demandAvgMshrMissLatency::total 88695.625000                       # average overall mshr miss latency ((Tick/Count))
system.cpu.icache.overallAvgMshrMissLatency::cpu.inst 88695.625000                       # average overall mshr miss latency ((Tick/Count))
system.cpu.icache.overallAvgMshrMissLatency::total 88695.625000                       # average overall mshr miss latency ((Tick/Count))
system.cpu.icache.replacements                   1341                       # number of replacements (Count)
system.cpu.icache.ReadReq.hits::cpu.inst        12747                       # number of ReadReq hits (Count)
system.cpu.icache.ReadReq.hits::total           12747                       # number of ReadReq hits (Count)
system.cpu.icache.ReadReq.misses::cpu.inst         1922                       # number of ReadReq misses (Count)
system.cpu.icache.ReadReq.misses::total          1922                       # number of ReadReq misses (Count)
system.cpu.icache.ReadReq.missLatency::cpu.inst    168078000                       # number of ReadReq miss ticks (Tick)
system.cpu.icache.ReadReq.missLatency::total    168078000                       # number of ReadReq miss ticks (Tick)
system.cpu.icache.ReadReq.accesses::cpu.inst        14669                       # number of ReadReq accesses(hits+misses) (Count)
system.cpu.icache.ReadReq.accesses::total        14669                       # number of ReadReq accesses(hits+misses) (Count)
system.cpu.icache.ReadReq.missRate::cpu.inst     0.131025                       # miss rate for ReadReq accesses (Ratio)
system.cpu.icache.ReadReq.missRate::total     0.131025                       # miss rate for ReadReq accesses (Ratio)
system.cpu.icache.ReadReq.avgMissLatency::cpu.inst 87449.531738                       # average ReadReq miss latency ((Tick/Count))
system.cpu.icache.ReadReq.avgMissLatency::total 87449.531738                       # average ReadReq miss latency ((Tick/Count))
system.cpu.icache.ReadReq.mshrHits::cpu.inst          322                       # number of ReadReq MSHR hits (Count)
system.cpu.icache.ReadReq.mshrHits::total          322                       # number of ReadReq MSHR hits (Count)
system.cpu.icache.ReadReq.mshrMisses::cpu.inst         1600                       # number of ReadReq MSHR misses (Count)
system.cpu.icache.ReadReq.mshrMisses::total         1600                       # number of ReadReq MSHR misses (Count)
system.cpu.icache.ReadReq.mshrMissLatency::cpu.inst    141913000                       # number of ReadReq MSHR miss ticks (Tick)
system.cpu.icache.ReadReq.mshrMissLatency::total    141913000                       # number of ReadReq MSHR miss ticks (Tick)
system.cpu.icache.ReadReq.mshrMissRate::cpu.inst     0.109074                       # mshr miss rate for ReadReq accesses (Ratio)
system.cpu.icache.ReadReq.mshrMissRate::total     0.109074                       # mshr miss rate for ReadReq accesses (Ratio)
system.cpu.icache.ReadReq.avgMshrMissLatency::cpu.inst 88695.625000                       # average ReadReq mshr miss latency ((Tick/Count))
system.cpu.icache.ReadReq.avgMshrMissLatency::total 88695.625000                       # average ReadReq mshr miss latency ((Tick/Count))
system.cpu.icache.power_state.pwrStateResidencyTicks::UNDEFINED    160880000                       # Cumulative time (in ticks) in various power states (Tick)
system.cpu.icache.tags.tagsInUse           221.096724                       # Average ticks per tags in use ((Tick/Count))
system.cpu.icache.tags.totalRefs                14346                       # Total number of references to valid blocks. (Count)
system.cpu.icache.tags.sampledRefs               1599                       # Sample count of references to valid blocks. (Count)
system.cpu.icache.tags.avgRefs               8.971857                       # Average number of references to valid blocks. ((Count/Count))
system.cpu.icache.tags.warmupTick              107000                       # The tick when the warmup percentage was hit. (Tick)
system.cpu.icache.tags.occupancies::cpu.inst   221.096724                       # Average occupied blocks per tick, per requestor ((Count/Tick))
system.cpu.icache.tags.avgOccs::cpu.inst     0.863659                       # Average percentage of cache occupancy ((Ratio/Tick))
system.cpu.icache.tags.avgOccs::total        0.863659                       # Average percentage of cache occupancy ((Ratio/Tick))
system.cpu.icache.tags.occupanciesTaskId::1024          256                       # Occupied blocks per task id (Count)
system.cpu.icache.tags.ageTaskId_1024::0          105                       # Occupied blocks per task id, per block age (Count)
system.cpu.icache.tags.ageTaskId_1024::1          150                       # Occupied blocks per task id, per block age (Count)
system.cpu.icache.tags.ageTaskId_1024::2            1                       # Occupied blocks per task id, per block age (Count)
system.cpu.icache.tags.ratioOccsTaskId::1024            1                       # Ratio of occupied blocks and all blocks, per task id (Ratio)
system.cpu.icache.tags.tagAccesses              30937                       # Number of tag accesses (Count)
system.cpu.icache.tags.dataAccesses             30937                       # Number of data accesses (Count)
system.cpu.icache.tags.power_state.pwrStateResidencyTicks::UNDEFINED    160880000                       # Cumulative time (in ticks) in various power states (Tick)
system.cpu.iew.idleCycles                           0                       # Number of cycles IEW is idle (Cycle)
system.cpu.iew.squashCycles                      1335                       # Number of cycles IEW is squashing (Cycle)
system.cpu.iew.blockCycles                       4140                       # Number of cycles IEW is blocking (Cycle)
system.cpu.iew.unblockCycles                     1537                       # Number of cycles IEW is unblocking (Cycle)
system.cpu.iew.dispatchedInsts                 153605                       # Number of instructions dispatched to IQ (Count)
system.cpu.iew.dispSquashedInsts                  200                       # Number of squashed instructions skipped by dispatch (Count)
system.cpu.iew.dispLoadInsts                    19318                       # Number of dispatched load instructions (Count)
system.cpu.iew.dispStoreInsts                   12036                       # Number of dispatched store instructions (Count)
system.cpu.iew.dispNonSpecInsts                    31                       # Number of dispatched non-speculative instructions (Count)
system.cpu.iew.iqFullEvents                        38                       # Number of times the IQ has become full, causing a stall (Count)
system.cpu.iew.lsqFullEvents                     1494                       # Number of times the LSQ has become full, causing a stall (Count)
system.cpu.iew.memOrderViolationEvents             46                       # Number of memory order violations (Count)
system.cpu.iew.predictedTakenIncorrect            194                       # Number of branches that were predicted taken incorrectly (Count)
system.cpu.iew.predictedNotTakenIncorrect         1358                       # Number of branches that were predicted not taken incorrectly (Count)
system.cpu.iew.branchMispredicts                 1552                       # Number of branch mispredicts detected at execute (Count)
system.cpu.iew.instsToCommit                   144314                       # Cumulative count of insts sent to commit (Count)
system.cpu.iew.writebackCount                  143668                       # Cumulative count of insts written-back (Count)
system.cpu.iew.producerInst                     99331                       # Number of instructions producing a value (Count)
system.cpu.iew.consumerInst                    155328                       # Number of instructions consuming a value (Count)
system.cpu.iew.wbRate                        0.893008                       # Insts written-back per cycle ((Count/Cycle))
system.cpu.iew.wbFanout                      0.639492                       # Average fanout of values written-back ((Count/Count))
system.cpu.interrupts.clk_domain.clock          16000                       # Clock period in ticks (Tick)
system.cpu.lsq0.forwLoads                        3249                       # Number of loads that had data forwarded from stores (Count)
system.cpu.lsq0.squashedLoads                    3690                       # Number of loads squashed (Count)
system.cpu.lsq0.ignoredResponses                    7                       # Number of memory responses ignored because the instruction is squashed (Count)
system.cpu.lsq0.memOrderViolation                  46                       # Number of memory ordering violations (Count)
system.cpu.lsq0.squashedStores                   2159                       # Number of stores squashed (Count)
system.cpu.lsq0.rescheduledLoads                    1                       # Number of loads that were rescheduled (Count)
system.cpu.lsq0.blockedByCache                     16                       # Number of times an access to memory failed due to the cache being blocked (Count)
system.cpu.lsq0.loadToUse::samples              15628                       # Distribution of cycle latency between the first time a load is issued and its completion (Unspecified)
system.cpu.lsq0.loadToUse::mean              4.828577                       # Distribution of cycle latency between the first time a load is issued and its completion (Unspecified)
system.cpu.lsq0.loadToUse::stdev            15.266582                       # Distribution of cycle latency between the first time a load is issued and its completion (Unspecified)
system.cpu.lsq0.loadToUse::0-9                  15355     98.25%     98.25% # Distribution of cycle latency between the first time a load is issued and its completion (Unspecified)
system.cpu.lsq0.loadToUse::10-19                    6      0.04%     98.29% # Distribution of cycle latency between the first time a load is issued and its completion (Unspecified)
system.cpu.lsq0.loadToUse::20-29                    2      0.01%     98.30% # Distribution of cycle latency between the first time a load is issued and its completion (Unspecified)
system.cpu.lsq0.loadToUse::30-39                    1      0.01%     98.31% # Distribution of cycle latency between the first time a load is issued and its completion (Unspecified)
system.cpu.lsq0.loadToUse::40-49                    1      0.01%     98.32% # Distribution of cycle latency between the first time a load is issued and its completion (Unspecified)
system.cpu.lsq0.loadToUse::50-59                    2      0.01%     98.33% # Distribution of cycle latency between the first time a load is issued and its completion (Unspecified)
system.cpu.lsq0.loadToUse::70-79                    5      0.03%     98.36% # Distribution of cycle latency between the first time a load is issued and its completion (Unspecified)
system.cpu.lsq0.loadToUse::80-89                    7      0.04%     98.41% # Distribution of cycle latency between the first time a load is issued and its completion (Unspecified)
system.cpu.lsq0.loadToUse::90-99                   76      0.49%     98.89% # Distribution of cycle latency between the first time a load is issued and its completion (Unspecified)
system.cpu.lsq0.loadToUse::100-109                 25      0.16%     99.05% # Distribution of cycle latency between the first time a load is issued and its completion (Unspecified)
system.cpu.lsq0.loadToUse::110-119                 59      0.38%     99.43% # Distribution of cycle latency between the first time a load is issued and its completion (Unspecified)
system.cpu.lsq0.loadToUse::120-129                 73      0.47%     99.90% # Distribution of cycle latency between the first time a load is issued and its completion (Unspecified)
system.cpu.lsq0.loadToUse::140-149                  1      0.01%     99.90% # Distribution of cycle latency between the first time a load is issued and its completion (Unspecified)
system.cpu.lsq0.loadToUse::180-189                  1      0.01%     99.91% # Distribution of cycle latency between the first time a load is issued and its completion (Unspecified)
system.cpu.lsq0.loadToUse::190-199                  4      0.03%     99.94% # Distribution of cycle latency between the first time a load is issued and its completion (Unspecified)
system.cpu.lsq0.loadToUse::200-209                  4      0.03%     99.96% # Distribution of cycle latency between the first time a load is issued and its completion (Unspecified)
system.cpu.lsq0.loadToUse::250-259                  3      0.02%     99.98% # Distribution of cycle latency between the first time a load is issued and its completion (Unspecified)
system.cpu.lsq0.loadToUse::overflows                3      0.02%    100.00% # Distribution of cycle latency between the first time a load is issued and its completion (Unspecified)
system.cpu.lsq0.loadToUse::min_value                2                       # Distribution of cycle latency between the first time a load is issued and its completion (Unspecified)
system.cpu.lsq0.loadToUse::max_value              380                       # Distribution of cycle latency between the first time a load is issued and its completion (Unspecified)
system.cpu.lsq0.loadToUse::total                15628                       # Distribution of cycle latency between the first time a load is issued and its completion (Unspecified)
system.cpu.mmu.dtb.rdAccesses                   18223                       # TLB accesses on read requests (Count)
system.cpu.mmu.dtb.wrAccesses                   11057                       # TLB accesses on write requests (Count)
system.cpu.mmu.dtb.rdMisses                       111                       # TLB misses on read requests (Count)
system.cpu.mmu.dtb.wrMisses                        52                       # TLB misses on write requests (Count)
system.cpu.mmu.dtb.walker.power_state.pwrStateResidencyTicks::UNDEFINED    160880000                       # Cumulative time (in ticks) in various power states (Tick)
system.cpu.mmu.itb.rdAccesses                       0                       # TLB accesses on read requests (Count)
system.cpu.mmu.itb.wrAccesses                   14834                       # TLB accesses on write requests (Count)
system.cpu.mmu.itb.rdMisses                         0                       # TLB misses on read requests (Count)
system.cpu.mmu.itb.wrMisses                       291                       # TLB misses on write requests (Count)
system.cpu.mmu.itb.walker.power_state.pwrStateResidencyTicks::UNDEFINED    160880000                       # Cumulative time (in ticks) in various power states (Tick)
system.cpu.power_state.pwrStateResidencyTicks::ON    160880000                       # Cumulative time (in ticks) in various power states (Tick)
system.cpu.rename.squashCycles                   1335                       # Number of cycles rename is squashing (Cycle)
system.cpu.rename.idleCycles                    55487                       # Number of cycles rename is idle (Cycle)
system.cpu.rename.blockCycles                    6669                       # Number of cycles rename is blocking (Cycle)
system.cpu.rename.serializeStallCycles             93                       # count of cycles rename stalled for serializing inst (Cycle)
system.cpu.rename.runCycles                     24063                       # Number of cycles rename is running (Cycle)
system.cpu.rename.unblockCycles                 11178                       # Number of cycles rename is unblocking (Cycle)
[...]
system.mem_ctrl.requestorReadAvgLat::cpu.inst     27356.53                       # Per-requestor read average memory access latency ((Tick/Count))
system.mem_ctrl.requestorReadAvgLat::cpu.data     29667.47                       # Per-requestor read average memory access latency ((Tick/Count))
system.mem_ctrl.dram.bytesRead::cpu.inst        85312                       # Number of bytes read from this memory (Byte)
system.mem_ctrl.dram.bytesRead::cpu.data        33344                       # Number of bytes read from this memory (Byte)
system.mem_ctrl.dram.bytesRead::total          118656                       # Number of bytes read from this memory (Byte)
system.mem_ctrl.dram.bytesInstRead::cpu.inst        85312                       # Number of instructions bytes read from this memory (Byte)
system.mem_ctrl.dram.bytesInstRead::total        85312                       # Number of instructions bytes read from this memory (Byte)
system.mem_ctrl.dram.numReads::cpu.inst          1333                       # Number of read requests responded to by this memory (Count)
system.mem_ctrl.dram.numReads::cpu.data           521                       # Number of read requests responded to by this memory (Count)
system.mem_ctrl.dram.numReads::total             1854                       # Number of read requests responded to by this memory (Count)
system.mem_ctrl.dram.bwRead::cpu.inst       530283441                       # Total read bandwidth from this memory ((Byte/Second))
system.mem_ctrl.dram.bwRead::cpu.data       207260070                       # Total read bandwidth from this memory ((Byte/Second))
system.mem_ctrl.dram.bwRead::total          737543511                       # Total read bandwidth from this memory ((Byte/Second))
system.mem_ctrl.dram.bwInstRead::cpu.inst    530283441                       # Instruction read bandwidth from this memory ((Byte/Second))
system.mem_ctrl.dram.bwInstRead::total      530283441                       # Instruction read bandwidth from this memory ((Byte/Second))
system.mem_ctrl.dram.bwTotal::cpu.inst      530283441                       # Total bandwidth to/from this memory ((Byte/Second))
system.mem_ctrl.dram.bwTotal::cpu.data      207260070                       # Total bandwidth to/from this memory ((Byte/Second))
system.mem_ctrl.dram.bwTotal::total         737543511                       # Total bandwidth to/from this memory ((Byte/Second))
system.mem_ctrl.dram.readBursts                  1854                       # Number of DRAM read bursts (Count)
system.mem_ctrl.dram.writeBursts                    0                       # Number of DRAM write bursts (Count)
system.mem_ctrl.dram.perBankRdBursts::0            88                       # Per bank write bursts (Count)
system.mem_ctrl.dram.perBankRdBursts::1            50                       # Per bank write bursts (Count)
system.mem_ctrl.dram.perBankRdBursts::2           146                       # Per bank write bursts (Count)
system.mem_ctrl.dram.perBankRdBursts::3           237                       # Per bank write bursts (Count)
system.mem_ctrl.dram.perBankRdBursts::4           165                       # Per bank write bursts (Count)
system.mem_ctrl.dram.perBankRdBursts::5            92                       # Per bank write bursts (Count)
system.mem_ctrl.dram.perBankRdBursts::6            35                       # Per bank write bursts (Count)
system.mem_ctrl.dram.perBankRdBursts::7           117                       # Per bank write bursts (Count)
system.mem_ctrl.dram.perBankRdBursts::8           172                       # Per bank write bursts (Count)
system.mem_ctrl.dram.perBankRdBursts::9           125                       # Per bank write bursts (Count)
system.mem_ctrl.dram.perBankRdBursts::10          187                       # Per bank write bursts (Count)
system.mem_ctrl.dram.perBankRdBursts::11           82                       # Per bank write bursts (Count)
system.mem_ctrl.dram.perBankRdBursts::12           78                       # Per bank write bursts (Count)
system.mem_ctrl.dram.perBankRdBursts::13           59                       # Per bank write bursts (Count)
system.mem_ctrl.dram.perBankRdBursts::14          175                       # Per bank write bursts (Count)
system.mem_ctrl.dram.perBankRdBursts::15           46                       # Per bank write bursts (Count)
system.mem_ctrl.dram.perBankWrBursts::0             0                       # Per bank write bursts (Count)
system.mem_ctrl.dram.perBankWrBursts::1             0                       # Per bank write bursts (Count)
system.mem_ctrl.dram.perBankWrBursts::2             0                       # Per bank write bursts (Count)
system.mem_ctrl.dram.perBankWrBursts::3             0                       # Per bank write bursts (Count)
system.mem_ctrl.dram.perBankWrBursts::4             0                       # Per bank write bursts (Count)
system.mem_ctrl.dram.perBankWrBursts::5             0                       # Per bank write bursts (Count)
system.mem_ctrl.dram.perBankWrBursts::6             0                       # Per bank write bursts (Count)
system.mem_ctrl.dram.perBankWrBursts::7             0                       # Per bank write bursts (Count)
system.mem_ctrl.dram.perBankWrBursts::8             0                       # Per bank write bursts (Count)
system.mem_ctrl.dram.perBankWrBursts::9             0                       # Per bank write bursts (Count)
system.mem_ctrl.dram.perBankWrBursts::10            0                       # Per bank write bursts (Count)
system.mem_ctrl.dram.perBankWrBursts::11            0                       # Per bank write bursts (Count)
system.mem_ctrl.dram.perBankWrBursts::12            0                       # Per bank write bursts (Count)
system.mem_ctrl.dram.perBankWrBursts::13            0                       # Per bank write bursts (Count)
system.mem_ctrl.dram.perBankWrBursts::14            0                       # Per bank write bursts (Count)
system.mem_ctrl.dram.perBankWrBursts::15            0                       # Per bank write bursts (Count)
system.mem_ctrl.dram.totQLat                 17160500                       # Total ticks spent queuing (Tick)
system.mem_ctrl.dram.totBusLat                9270000                       # Total ticks spent in databus transfers (Tick)
system.mem_ctrl.dram.totMemAccLat            51923000                       # Total ticks spent from burst creation until serviced by the DRAM (Tick)
system.mem_ctrl.dram.avgQLat                  9255.93                       # Average queueing delay per DRAM burst ((Tick/Count))
system.mem_ctrl.dram.avgBusLat                5000.00                       # Average bus latency per DRAM burst ((Tick/Count))
system.mem_ctrl.dram.avgMemAccLat            28005.93                       # Average memory access latency per DRAM burst ((Tick/Count))
system.mem_ctrl.dram.readRowHits                 1440                       # Number of row buffer hits during reads (Count)
system.mem_ctrl.dram.writeRowHits                   0                       # Number of row buffer hits during writes (Count)
system.mem_ctrl.dram.readRowHitRate             77.67                       # Row buffer hit rate for reads (Ratio)
system.mem_ctrl.dram.writeRowHitRate              nan                       # Row buffer hit rate for writes (Ratio)
system.mem_ctrl.dram.bytesPerActivate::samples          403                       # Bytes accessed per row activation (Byte)
system.mem_ctrl.dram.bytesPerActivate::mean   289.191067                       # Bytes accessed per row activation (Byte)
system.mem_ctrl.dram.bytesPerActivate::gmean   181.941224                       # Bytes accessed per row activation (Byte)
system.mem_ctrl.dram.bytesPerActivate::stdev   295.096393                       # Bytes accessed per row activation (Byte)
system.mem_ctrl.dram.bytesPerActivate::0-127          132     32.75%     32.75% # Bytes accessed per row activation (Byte)
system.mem_ctrl.dram.bytesPerActivate::128-255          114     28.29%     61.04% # Bytes accessed per row activation (Byte)
system.mem_ctrl.dram.bytesPerActivate::256-383           46     11.41%     72.46% # Bytes accessed per row activation (Byte)
system.mem_ctrl.dram.bytesPerActivate::384-511           29      7.20%     79.65% # Bytes accessed per row activation (Byte)
system.mem_ctrl.dram.bytesPerActivate::512-639           23      5.71%     85.36% # Bytes accessed per row activation (Byte)
system.mem_ctrl.dram.bytesPerActivate::640-767           12      2.98%     88.34% # Bytes accessed per row activation (Byte)
system.mem_ctrl.dram.bytesPerActivate::768-895            9      2.23%     90.57% # Bytes accessed per row activation (Byte)
system.mem_ctrl.dram.bytesPerActivate::896-1023            4      0.99%     91.56% # Bytes accessed per row activation (Byte)
system.mem_ctrl.dram.bytesPerActivate::1024-1151           34      8.44%    100.00% # Bytes accessed per row activation (Byte)
system.mem_ctrl.dram.bytesPerActivate::total          403                       # Bytes accessed per row activation (Byte)
system.mem_ctrl.dram.bytesRead                 118656                       # Total bytes read (Byte)
system.mem_ctrl.dram.bytesWritten                   0                       # Total bytes written (Byte)
system.mem_ctrl.dram.avgRdBW               737.543511                       # Average DRAM read bandwidth in MiBytes/s ((Byte/Second))
system.mem_ctrl.dram.avgWrBW                        0                       # Average DRAM write bandwidth in MiBytes/s ((Byte/Second))
system.mem_ctrl.dram.peakBW                  12800.00                       # Theoretical peak bandwidth in MiByte/s ((Byte/Second))
system.mem_ctrl.dram.busUtil                     5.76                       # Data bus utilization in percentage (Ratio)
system.mem_ctrl.dram.busUtilRead                 5.76                       # Data bus utilization in percentage for reads (Ratio)
system.mem_ctrl.dram.busUtilWrite                0.00                       # Data bus utilization in percentage for writes (Ratio)
system.mem_ctrl.dram.pageHitRate                77.67                       # Row buffer hit rate, read and write combined (Ratio)
system.mem_ctrl.dram.power_state.pwrStateResidencyTicks::UNDEFINED    160880000                       # Cumulative time (in ticks) in various power states (Tick)
system.mem_ctrl.dram.rank0.actEnergy          1370880                       # Energy for activate commands per rank (pJ) (Joule)
system.mem_ctrl.dram.rank0.preEnergy           698280                       # Energy for precharge commands per rank (pJ) (Joule)
system.mem_ctrl.dram.rank0.readEnergy         6640200                       # Energy for read commands per rank (pJ) (Joule)
system.mem_ctrl.dram.rank0.writeEnergy              0                       # Energy for write commands per rank (pJ) (Joule)
system.mem_ctrl.dram.rank0.refreshEnergy 12292800.000000                       # Energy for refresh commands per rank (pJ) (Joule)
system.mem_ctrl.dram.rank0.actBackEnergy     68949480                       # Energy for active background per rank (pJ) (Joule)
system.mem_ctrl.dram.rank0.preBackEnergy      3715200                       # Energy for precharge background per rank (pJ) (Joule)
system.mem_ctrl.dram.rank0.actPowerDownEnergy            0                       # Energy for active power-down per rank (pJ) (Joule)
system.mem_ctrl.dram.rank0.prePowerDownEnergy            0                       # Energy for precharge power-down per rank (pJ) (Joule)
system.mem_ctrl.dram.rank0.selfRefreshEnergy            0                       # Energy for self refresh per rank (pJ) (Joule)
system.mem_ctrl.dram.rank0.totalEnergy       93666840                       # Total energy per rank (pJ) (Joule)
system.mem_ctrl.dram.rank0.averagePower    582.215564                       # Core power per rank (mW) (Watt)
system.mem_ctrl.dram.rank0.totalIdleTime            0                       # Total Idle time Per DRAM Rank (Tick)
system.mem_ctrl.dram.rank0.pwrStateTime::IDLE      9108250                       # Time in different power states (Tick)
system.mem_ctrl.dram.rank0.pwrStateTime::REF      5200000                       # Time in different power states (Tick)
system.mem_ctrl.dram.rank0.pwrStateTime::SREF            0                       # Time in different power states (Tick)
system.mem_ctrl.dram.rank0.pwrStateTime::PRE_PDN            0                       # Time in different power states (Tick)
system.mem_ctrl.dram.rank0.pwrStateTime::ACT    146571750                       # Time in different power states (Tick)
system.mem_ctrl.dram.rank0.pwrStateTime::ACT_PDN            0                       # Time in different power states (Tick)
system.mem_ctrl.dram.rank1.actEnergy          1585080                       # Energy for activate commands per rank (pJ) (Joule)
system.mem_ctrl.dram.rank1.preEnergy           831105                       # Energy for precharge commands per rank (pJ) (Joule)
system.mem_ctrl.dram.rank1.readEnergy         6597360                       # Energy for read commands per rank (pJ) (Joule)
system.mem_ctrl.dram.rank1.writeEnergy              0                       # Energy for write commands per rank (pJ) (Joule)
system.mem_ctrl.dram.rank1.refreshEnergy 12292800.000000                       # Energy for refresh commands per rank (pJ) (Joule)
system.mem_ctrl.dram.rank1.actBackEnergy     71781240                       # Energy for active background per rank (pJ) (Joule)
system.mem_ctrl.dram.rank1.preBackEnergy      1330560                       # Energy for precharge background per rank (pJ) (Joule)
system.mem_ctrl.dram.rank1.actPowerDownEnergy            0                       # Energy for active power-down per rank (pJ) (Joule)
system.mem_ctrl.dram.rank1.prePowerDownEnergy            0                       # Energy for precharge power-down per rank (pJ) (Joule)
system.mem_ctrl.dram.rank1.selfRefreshEnergy            0                       # Energy for self refresh per rank (pJ) (Joule)
system.mem_ctrl.dram.rank1.totalEnergy       94418145                       # Total energy per rank (pJ) (Joule)
system.mem_ctrl.dram.rank1.averagePower    586.885536                       # Core power per rank (mW) (Watt)
system.mem_ctrl.dram.rank1.totalIdleTime            0                       # Total Idle time Per DRAM Rank (Tick)
system.mem_ctrl.dram.rank1.pwrStateTime::IDLE      2840250                       # Time in different power states (Tick)
system.mem_ctrl.dram.rank1.pwrStateTime::REF      5200000                       # Time in different power states (Tick)
system.mem_ctrl.dram.rank1.pwrStateTime::SREF            0                       # Time in different power states (Tick)
system.mem_ctrl.dram.rank1.pwrStateTime::PRE_PDN            0                       # Time in different power states (Tick)
system.mem_ctrl.dram.rank1.pwrStateTime::ACT    152839750                       # Time in different power states (Tick)
system.mem_ctrl.dram.rank1.pwrStateTime::ACT_PDN            0                       # Time in different power states (Tick)
system.mem_ctrl.power_state.pwrStateResidencyTicks::UNDEFINED    160880000                       # Cumulative time (in ticks) in various power states (Tick)
system.membus.transDist::ReadResp                1559                       # Transaction distribution (Count)
system.membus.transDist::CleanEvict                 1                       # Transaction distribution (Count)
system.membus.transDist::ReadExReq                295                       # Transaction distribution (Count)
system.membus.transDist::ReadExResp               295                       # Transaction distribution (Count)
system.membus.transDist::ReadSharedReq           1559                       # Transaction distribution (Count)
system.membus.pktCount_system.l2cache.mem_side_port::system.mem_ctrl.port         3709                       # Packet count per connected requestor and responder (Count)
system.membus.pktCount_system.l2cache.mem_side_port::total         3709                       # Packet count per connected requestor and responder (Count)
system.membus.pktCount::total                    3709                       # Packet count per connected requestor and responder (Count)
system.membus.pktSize_system.l2cache.mem_side_port::system.mem_ctrl.port       118656                       # Cumulative packet size per connected requestor and responder (Byte)
system.membus.pktSize_system.l2cache.mem_side_port::total       118656                       # Cumulative packet size per connected requestor and responder (Byte)
system.membus.pktSize::total                   118656                       # Cumulative packet size per connected requestor and responder (Byte)
system.membus.snoops                                0                       # Total snoops (Count)
system.membus.snoopTraffic                          0                       # Total snoop traffic (Byte)
system.membus.snoopFanout::samples               1854                       # Request fanout histogram (Count)
system.membus.snoopFanout::mean                     0                       # Request fanout histogram (Count)
system.membus.snoopFanout::stdev                    0                       # Request fanout histogram (Count)
system.membus.snoopFanout::underflows               0      0.00%      0.00% # Request fanout histogram (Count)
system.membus.snoopFanout::0                     1854    100.00%    100.00% # Request fanout histogram (Count)
system.membus.snoopFanout::1                        0      0.00%    100.00% # Request fanout histogram (Count)
system.membus.snoopFanout::overflows                0      0.00%    100.00% # Request fanout histogram (Count)
system.membus.snoopFanout::min_value                0                       # Request fanout histogram (Count)
system.membus.snoopFanout::max_value                0                       # Request fanout histogram (Count)
system.membus.snoopFanout::total                 1854                       # Request fanout histogram (Count)
system.membus.power_state.pwrStateResidencyTicks::UNDEFINED    160880000                       # Cumulative time (in ticks) in various power states (Tick)
system.membus.reqLayer2.occupancy             1855000                       # Layer occupancy (ticks) (Tick)
system.membus.reqLayer2.utilization               0.0                       # Layer utilization (Ratio)
system.membus.respLayer0.occupancy            9853500                       # Layer occupancy (ticks) (Tick)
system.membus.respLayer0.utilization              0.1                       # Layer utilization (Ratio)
system.membus.snoop_filter.totRequests           1855                       # Total number of requests made to the snoop filter. (Count)
system.membus.snoop_filter.hitSingleRequests            1                       # Number of requests hitting in the snoop filter with a single holder of the requested data. (Count)
system.membus.snoop_filter.hitMultiRequests            0                       # Number of requests hitting in the snoop filter with multiple (>1) holders of the requested data. (Count)
system.membus.snoop_filter.totSnoops                0                       # Total number of snoops made to the snoop filter. (Count)
system.membus.snoop_filter.hitSingleSnoops            0                       # Number of snoops hitting in the snoop filter with a single holder of the requested data. (Count)
system.membus.snoop_filter.hitMultiSnoops            0                       # Number of snoops hitting in the snoop filter with multiple (>1) holders of the requested data. (Count)
system.workload.inst.arm                            0                       # number of arm instructions executed (Count)
system.workload.inst.quiesce                        0                       # number of quiesce instructions executed (Count)

---------- End Simulation Statistics   ----------
